[General]
sim-time-limit = 300s

[Config Params]
**.x1.p = 0.65
**.x2.p = 0.35
**.x3.p = 0.7
**.x5.p = 0.45

[Config MinPathNetwork]
network = lab2.MinPathNetwork
description = "5-Component network with min-path representation"
extends = Params



[Config MinCutNetwork]
network = lab2.MinCutNetwork
description = "5-Component network with min-cut representation"
extends = Params

