[General]
ned-path = .;../../Lab02/src

[Config Params]
**.x1.lifetime = 5
**.x2.lifetime = 10
**.x3.lifetime = 15
**.x4.lifetime = 20
**.x5.lifetime = 25

**.x1.repairtime = 7
**.x2.repairtime = 10
**.x3.repairtime = 8
**.x4.repairtime = 11
**.x5.repairtime = 13

**.ss1.lambda = 5
**.ss2.lambda = 10
**.ss3.lambda = 15
**.ss4.lambda = 20
**.ss5.lambda = 25

[Config Survival]
network     = lab3.survival
description = "5-component Survival System"
extends = Params

[Config Repair]
network     = lab3.MinPathSurvival
description = "5-component Survival & Repair System"
extends = Params

[Config ParameterStudy]
network = lab3.system_eval
description = "5-component Survival & Repair System with parameter study"

**.vector-recording = false
**.x1.lifetime = 5
**.x2.lifetime = 10
**.x3.lifetime = 15
**.x4.lifetime = 20
**.x5.lifetime = 25

**.x1.repairtime = ${ref = 5..50}
**.x2.repairtime = ${5..50!ref}
**.x3.repairtime = ${5..50!ref}
**.x4.repairtime = ${5..50!ref}
**.x5.repairtime = ${5..50!ref}
sim-time-limit = 36000s

**.ss1.lambda = 5
**.ss2.lambda = 10
**.ss3.lambda = 15
**.ss4.lambda = 20
**.ss5.lambda = 25