[General]
ned-path=.;../../queueinglib
num-rngs = 3

[Config Jackson]
sim-time-limit = 100000s
network = lab05.Jackson
description = "Jackson Network of Homework"
**.source.interArrivalTime = exponential(1s)
**.queue1.serviceTime      = exponential(0.5s)
**.queue2.serviceTime      = exponential(0.333333333333s)
**.router1.randomGateIndex = bernoulli(9/10)
**.router2.randomGateIndex = bernoulli(1/3)


[Config MensaVita]
network = lab05.MensaVita
description = "Mensa Vita"
**.TellerGericht.serviceTime   = exponential(0.25s)
**.Vegetarisch.serviceTime     = exponential(0.25s)
**.Pasta.serviceTime           = exponential(0.25s)
**.Klassisch.serviceTime       = exponential(0.125s)
**.TagesEmpfehlung.serviceTime = exponential(0.125s)
**.Pizza.serviceTime           = exponential(0.5s)
**.Grill.serviceTime           = exponential(0.25s)
**.Buffet.serviceTime          = exponential(0.25s)
**.KasseBar.serviceTime        = exponential(0.25s)
**.KasseBC1.serviceTime        = exponential(0.125s)
**.KasseBC2.serviceTime        = exponential(0.125s)
**.KasseBC3.serviceTime        = exponential(0.125s)
**.routerMeal.rng-0            = 1
**.routerPaydesk.rng-0         = 2
**.sourceMensa.bar_pay         = 13
**.routerPaydesk.routingAlgorithm = "random"

[Config Test]
network = lab05.test_net
