[General]
ned-path=.;../../queueinglib
sim-time-limit = 100000s

[Config MMsK]
network = MMa
description = "Simulation of M/M/3/3 system"
**.src1.interArrivalTime = exponential(5s)
**.pq1.capacity = 3
**.serviceTime = exponential(10s)

[Config MMsKLCFS]
extends = MMsK
description = "Simulation of M/M/3/3 system with LCFS"

[Config MMsKBlockProb]
extends = MMsK
description = "Simulation of M/M/3/3 system for blocking probabilities"

[Config MMsKParameterStudy]
extends = MMsK
description = "Simulation of M/M/3/3 system for parameter study of mu"

[Config MM11_3]
network = MM11_3
**.capacity = 1
**.serviceTime = exponential(10s)
**.interArrivalTime = exponential(5s)
seed-set = 1
description = "Simulation of 3 router connected M/M/1/1 systems"

[Config MM11_3_shortest_queue]
extends = MM11_3
**.routingAlgorithm = "shortestQueue"
description = "Shortest Queue"

[Config MM11_3_equal]
extends = MM11_3
**.routingAlgorithm = "equalProbability"
description = "Equal Probability"

[Config MM11_3_round_robin]
extends = MM11_3
**.routingAlgorithm = "roundRobin"
description = "Round Robin"

